MODPATH=mod/
LOGFILE=-
CLIENTHOST=localhost
CLIENTPORT=9090